290
I am a comment 
H -0.2335922  0.7559264  0.6115555 
H -0.3779632  0.3779632  0.8451477 
H -0.0000000  0.1443710  0.9895187 
H  0.3779632  0.3779632  0.8451477 
H  0.2335922  0.7559264  0.6115555 
H  0.9895187 -0.0000000  0.1443710 
H  0.8451477  0.3779632  0.3779632 
H  0.6115555  0.2335922  0.7559264 
H  0.6115555 -0.2335922  0.7559264 
H  0.8451477 -0.3779632  0.3779632 
H -0.2335922 -0.7559264  0.6115555 
H  0.2335922 -0.7559264  0.6115555 
H  0.3779632 -0.3779632  0.8451477 
H  0.0000000 -0.1443710  0.9895187 
H -0.3779632 -0.3779632  0.8451477 
H -0.9895187  0.0000000  0.1443710 
H -0.8451477 -0.3779632  0.3779632 
H -0.6115555 -0.2335922  0.7559264 
H -0.6115555  0.2335922  0.7559264 
H -0.8451477  0.3779632  0.3779632 
H -0.3779632  0.8451477 -0.3779632 
H -0.7559264  0.6115555 -0.2335922 
H -0.7559264  0.6115555  0.2335922 
H -0.3779632  0.8451477  0.3779632 
H -0.1443710  0.9895187  0.0000000 
H  0.3779632  0.8451477 -0.3779632 
H  0.1443710  0.9895187 -0.0000000 
H  0.3779632  0.8451477  0.3779632 
H  0.7559264  0.6115555  0.2335922 
H  0.7559264  0.6115555 -0.2335922 
H  0.6115555 -0.2335922 -0.7559264 
H  0.6115555  0.2335922 -0.7559264 
H  0.8451477  0.3779632 -0.3779632 
H  0.9895187  0.0000000 -0.1443710 
H  0.8451477 -0.3779632 -0.3779632 
H  0.3779632 -0.8451477 -0.3779632 
H  0.7559264 -0.6115555 -0.2335922 
H  0.7559264 -0.6115555  0.2335922 
H  0.3779632 -0.8451477  0.3779632 
H  0.1443710 -0.9895187  0.0000000 
H -0.3779632 -0.8451477 -0.3779632 
H -0.1443710 -0.9895187 -0.0000000 
H -0.3779632 -0.8451477  0.3779632 
H -0.7559264 -0.6115555  0.2335922 
H -0.7559264 -0.6115555 -0.2335922 
H -0.6115555 -0.2335922 -0.7559264 
H -0.8451477 -0.3779632 -0.3779632 
H -0.9895187 -0.0000000 -0.1443710 
H -0.8451477  0.3779632 -0.3779632 
H -0.6115555  0.2335922 -0.7559264 
H -0.3779632  0.3779632 -0.8451477 
H -0.2335922  0.7559264 -0.6115555 
H  0.2335922  0.7559264 -0.6115555 
H  0.3779632  0.3779632 -0.8451477 
H  0.0000000  0.1443710 -0.9895187 
H  0.3779632 -0.3779632 -0.8451477 
H  0.2335922 -0.7559264 -0.6115555 
H -0.2335922 -0.7559264 -0.6115555 
H -0.3779632 -0.3779632 -0.8451477 
H -0.0000000 -0.1443710 -0.9895187 
H  0.0000000  0.9002974  0.2335922 
H -0.6115555  0.5223342  0.4671845 
H -0.3779632 -0.0892213  0.8451477 
H  0.3779632 -0.0892213  0.8451477 
H  0.6115555  0.5223342  0.4671845 
H  0.8451477 -0.3779632 -0.0892213 
H  0.8451477  0.3779632 -0.0892213 
H  0.4671845  0.6115555  0.5223342 
H  0.2335922  0.0000000  0.9002974 
H  0.4671845 -0.6115555  0.5223342 
H -0.6115555 -0.5223342  0.4671845 
H  0.0000000 -0.9002974  0.2335922 
H  0.6115555 -0.5223342  0.4671845 
H  0.3779632  0.0892213  0.8451477 
H -0.3779632  0.0892213  0.8451477 
H -0.8451477  0.3779632 -0.0892213 
H -0.8451477 -0.3779632 -0.0892213 
H -0.4671845 -0.6115555  0.5223342 
H -0.2335922  0.0000000  0.9002974 
H -0.4671845  0.6115555  0.5223342 
H  0.0892213  0.8451477 -0.3779632 
H -0.5223342  0.4671845 -0.6115555 
H -0.9002974  0.2335922  0.0000000 
H -0.5223342  0.4671845  0.6115555 
H  0.0892213  0.8451477  0.3779632 
H  0.5223342  0.4671845 -0.6115555 
H -0.0892213  0.8451477 -0.3779632 
H -0.0892213  0.8451477  0.3779632 
H  0.5223342  0.4671845  0.6115555 
H  0.9002974  0.2335922  0.0000000 
H  0.4671845 -0.6115555 -0.5223342 
H  0.2335922  0.0000000 -0.9002974 
H  0.4671845  0.6115555 -0.5223342 
H  0.8451477  0.3779632  0.0892213 
H  0.8451477 -0.3779632  0.0892213 
H -0.0892213 -0.8451477 -0.3779632 
H  0.5223342 -0.4671845 -0.6115555 
H  0.9002974 -0.2335922  0.0000000 
H  0.5223342 -0.4671845  0.6115555 
H -0.0892213 -0.8451477  0.3779632 
H -0.5223342 -0.4671845 -0.6115555 
H  0.0892213 -0.8451477 -0.3779632 
H  0.0892213 -0.8451477  0.3779632 
H -0.5223342 -0.4671845  0.6115555 
H -0.9002974 -0.2335922  0.0000000 
H -0.2335922  0.0000000 -0.9002974 
H -0.4671845 -0.6115555 -0.5223342 
H -0.8451477 -0.3779632  0.0892213 
H -0.8451477  0.3779632  0.0892213 
H -0.4671845  0.6115555 -0.5223342 
H -0.3779632 -0.0892213 -0.8451477 
H -0.6115555  0.5223342 -0.4671845 
H  0.0000000  0.9002974 -0.2335922 
H  0.6115555  0.5223342 -0.4671845 
H  0.3779632 -0.0892213 -0.8451477 
H  0.3779632  0.0892213 -0.8451477 
H  0.6115555 -0.5223342 -0.4671845 
H  0.0000000 -0.9002974 -0.2335922 
H -0.6115555 -0.5223342 -0.4671845 
H -0.3779632  0.0892213 -0.8451477 
H  0.2335922  0.7559264 -0.1443710 
H -0.6115555  0.5223342 -0.0000000 
H -0.6115555 -0.2335922  0.4671845 
H  0.2335922 -0.4671845  0.6115555 
H  0.7559264  0.1443710  0.2335922 
H  0.4671845 -0.6115555 -0.2335922 
H  0.6115555  0.2335922 -0.4671845 
H  0.2335922  0.7559264  0.1443710 
H -0.1443710  0.2335922  0.7559264 
H -0.0000000 -0.6115555  0.5223342 
H -0.7559264 -0.1443710  0.2335922 
H -0.2335922 -0.7559264 -0.1443710 
H  0.6115555 -0.5223342 -0.0000000 
H  0.6115555  0.2335922  0.4671845 
H -0.2335922  0.4671845  0.6115555 
H -0.4671845  0.6115555 -0.2335922 
H -0.6115555 -0.2335922 -0.4671845 
H -0.2335922 -0.7559264  0.1443710 
H  0.1443710 -0.2335922  0.7559264 
H  0.0000000  0.6115555  0.5223342 
H  0.4671845  0.6115555 -0.2335922 
H -0.1443710  0.2335922 -0.7559264 
H -0.7559264 -0.1443710 -0.2335922 
H -0.5223342 -0.0000000  0.6115555 
H  0.2335922  0.4671845  0.6115555 
H  0.5223342 -0.0000000 -0.6115555 
H -0.2335922  0.4671845 -0.6115555 
H -0.4671845  0.6115555  0.2335922 
H  0.1443710  0.2335922  0.7559264 
H  0.7559264 -0.1443710  0.2335922 
H  0.2335922 -0.7559264 -0.1443710 
H -0.1443710 -0.2335922 -0.7559264 
H -0.0000000  0.6115555 -0.5223342 
H  0.4671845  0.6115555  0.2335922 
H  0.6115555 -0.2335922  0.4671845 
H -0.4671845 -0.6115555 -0.2335922 
H  0.1443710 -0.2335922 -0.7559264 
H  0.7559264  0.1443710 -0.2335922 
H  0.5223342  0.0000000  0.6115555 
H -0.2335922 -0.4671845  0.6115555 
H -0.5223342  0.0000000 -0.6115555 
H  0.2335922 -0.4671845 -0.6115555 
H  0.4671845 -0.6115555  0.2335922 
H -0.1443710 -0.2335922  0.7559264 
H -0.7559264  0.1443710  0.2335922 
H  0.1443710  0.2335922 -0.7559264 
H  0.0000000 -0.6115555 -0.5223342 
H -0.4671845 -0.6115555  0.2335922 
H -0.6115555  0.2335922  0.4671845 
H -0.2335922  0.7559264 -0.1443710 
H -0.2335922 -0.4671845 -0.6115555 
H -0.7559264  0.1443710 -0.2335922 
H -0.2335922  0.7559264  0.1443710 
H  0.6115555  0.5223342  0.0000000 
H  0.6115555 -0.2335922 -0.4671845 
H  0.2335922  0.4671845 -0.6115555 
H  0.7559264 -0.1443710 -0.2335922 
H  0.2335922 -0.7559264  0.1443710 
H -0.6115555 -0.5223342  0.0000000 
H -0.6115555  0.2335922 -0.4671845 
H -0.2335922  0.6115555  0.3779632 
H -0.3779632  0.2335922  0.6115555 
H  0.0000000  0.0000000  0.7559264 
H  0.3779632  0.2335922  0.6115555 
H  0.2335922  0.6115555  0.3779632 
H  0.0000000  0.7559264  0.0000000 
H -0.6115555  0.3779632  0.2335922 
H -0.3779632 -0.2335922  0.6115555 
H  0.3779632 -0.2335922  0.6115555 
H  0.6115555  0.3779632  0.2335922 
H  0.2335922  0.6115555 -0.3779632 
H -0.2335922  0.6115555 -0.3779632 
H -0.6115555  0.3779632 -0.2335922 
H -0.7559264  0.0000000  0.0000000 
H -0.6115555 -0.3779632  0.2335922 
H -0.2335922 -0.6115555  0.3779632 
H  0.2335922 -0.6115555  0.3779632 
H  0.6115555 -0.3779632  0.2335922 
H  0.7559264  0.0000000  0.0000000 
H  0.6115555  0.3779632 -0.2335922 
H  0.3779632  0.2335922 -0.6115555 
H -0.3779632  0.2335922 -0.6115555 
H -0.6115555 -0.3779632 -0.2335922 
H  0.0000000 -0.7559264  0.0000000 
H  0.6115555 -0.3779632 -0.2335922 
H  0.3779632 -0.2335922 -0.6115555 
H  0.0000000  0.0000000 -0.7559264 
H -0.3779632 -0.2335922 -0.6115555 
H -0.2335922 -0.6115555 -0.3779632 
H  0.2335922 -0.6115555 -0.3779632 
H  0.3779632  0.3779632 -0.3779632 
H -0.3779632  0.3779632 -0.3779632 
H -0.3779632  0.3779632  0.3779632 
H -0.3779632 -0.3779632  0.3779632 
H -0.3779632 -0.3779632 -0.3779632 
H  0.3779632 -0.3779632 -0.3779632 
H  0.3779632 -0.3779632  0.3779632 
H  0.3779632  0.3779632  0.3779632 
H -0.6115555 -0.2335922  0.0000000 
H  0.0000000 -0.6115555  0.2335922 
H  0.6115555 -0.2335922  0.0000000 
H  0.0000000 -0.6115555 -0.2335922 
H  0.2335922  0.0000000 -0.6115555 
H  0.0000000  0.6115555 -0.2335922 
H -0.6115555  0.2335922  0.0000000 
H  0.6115555  0.2335922  0.0000000 
H  0.0000000  0.6115555  0.2335922 
H -0.2335922  0.0000000 -0.6115555 
H  0.2335922  0.0000000  0.6115555 
H -0.2335922  0.0000000  0.6115555 
H  0.3779632 -0.0892213 -0.3779632 
H -0.0000000  0.1443710 -0.5223342 
H -0.3779632 -0.0892213 -0.3779632 
H -0.2335922 -0.4671845 -0.1443710 
H  0.2335922 -0.4671845 -0.1443710 
H -0.3779632 -0.3779632 -0.0892213 
H -0.1443710 -0.2335922 -0.4671845 
H -0.1443710  0.2335922 -0.4671845 
H -0.3779632  0.3779632 -0.0892213 
H -0.5223342 -0.0000000  0.1443710 
H -0.2335922  0.4671845 -0.1443710 
H -0.3779632  0.0892213 -0.3779632 
H  0.0000000 -0.1443710 -0.5223342 
H  0.3779632  0.0892213 -0.3779632 
H  0.2335922  0.4671845 -0.1443710 
H  0.3779632  0.3779632 -0.0892213 
H  0.1443710  0.2335922 -0.4671845 
H  0.1443710 -0.2335922 -0.4671845 
H  0.3779632 -0.3779632 -0.0892213 
H  0.5223342  0.0000000  0.1443710 
H  0.4671845 -0.1443710  0.2335922 
H  0.4671845 -0.1443710 -0.2335922 
H  0.0892213 -0.3779632 -0.3779632 
H -0.1443710 -0.5223342  0.0000000 
H  0.0892213 -0.3779632  0.3779632 
H  0.1443710 -0.5223342 -0.0000000 
H -0.0892213 -0.3779632 -0.3779632 
H -0.4671845 -0.1443710 -0.2335922 
H -0.4671845 -0.1443710  0.2335922 
H -0.0892213 -0.3779632  0.3779632 
H -0.1443710 -0.2335922  0.4671845 
H -0.3779632 -0.3779632  0.0892213 
H -0.5223342  0.0000000 -0.1443710 
H -0.3779632  0.3779632  0.0892213 
H -0.1443710  0.2335922  0.4671845 
H -0.4671845  0.1443710  0.2335922 
H -0.4671845  0.1443710 -0.2335922 
H -0.0892213  0.3779632 -0.3779632 
H  0.1443710  0.5223342  0.0000000 
H -0.0892213  0.3779632  0.3779632 
H -0.1443710  0.5223342 -0.0000000 
H  0.0892213  0.3779632 -0.3779632 
H  0.4671845  0.1443710 -0.2335922 
H  0.4671845  0.1443710  0.2335922 
H  0.0892213  0.3779632  0.3779632 
H  0.3779632  0.3779632  0.0892213 
H  0.5223342 -0.0000000 -0.1443710 
H  0.3779632 -0.3779632  0.0892213 
H  0.1443710 -0.2335922  0.4671845 
H  0.1443710  0.2335922  0.4671845 
H  0.2335922 -0.4671845  0.1443710 
H -0.2335922 -0.4671845  0.1443710 
H -0.3779632 -0.0892213  0.3779632 
H  0.0000000  0.1443710  0.5223342 
H  0.3779632 -0.0892213  0.3779632 
H -0.2335922  0.4671845  0.1443710 
H  0.2335922  0.4671845  0.1443710 
H  0.3779632  0.0892213  0.3779632 
H -0.0000000 -0.1443710  0.5223342 
H -0.3779632  0.0892213  0.3779632 
